<routes>
        <vType id="car" accel="0.8" decel="4.5" sigma="0.5" length="5" minGap="2.5" maxSpeed="16.67"         guiShape="passenger"/>

        <route id="12" edges="e1 e2" />  <route id="13" edges="e1 -e3" />  <route id="14" edges="e1 e4" />
        
        <route id="21" edges="-e2 -e1" />  <route id="23" edges="-e2 -e3" />  <route id="24" edges="-e2 e4" />
        
        <route id="31" edges="e3 -e1" />  <route id="32" edges="e3 e2" />  <route id="34" edges="e3 e4" />
        
        <route id="41" edges="-e4 -e1" />  <route id="42" edges="-e4 e2" />  <route id="43" edges="-e4 -e3" />
        
    <vehicle id="13_0" type="car" route="13" depart="0" />
    <vehicle id="31_1" type="car" route="31" depart="0" />
    <vehicle id="14_2" type="car" route="14" depart="2" color="1,1,0"/>
    <vehicle id="24_3" type="car" route="24" depart="2" color="1,0,0"/>
    <vehicle id="34_4" type="car" route="34" depart="2" />
    <vehicle id="24_5" type="car" route="24" depart="5" color="1,0,0"/>
    <vehicle id="34_6" type="car" route="34" depart="5" />
    <vehicle id="13_7" type="car" route="13" depart="6" />
    <vehicle id="13_8" type="car" route="13" depart="7" />
    <vehicle id="43_9" type="car" route="43" depart="9" />
    <vehicle id="43_10" type="car" route="43" depart="11" />
    <vehicle id="14_11" type="car" route="14" depart="13" color="1,1,0"/>
    <vehicle id="41_12" type="car" route="41" depart="14" />
    <vehicle id="42_13" type="car" route="42" depart="15" />
    <vehicle id="23_14" type="car" route="23" depart="18" color="1,1,0"/>
    <vehicle id="12_15" type="car" route="12" depart="19" />
    <vehicle id="31_16" type="car" route="31" depart="19" />
    <vehicle id="13_17" type="car" route="13" depart="21" />
    <vehicle id="43_18" type="car" route="43" depart="21" />
    <vehicle id="34_19" type="car" route="34" depart="22" />
    <vehicle id="32_20" type="car" route="32" depart="23" />
    <vehicle id="24_21" type="car" route="24" depart="24" color="1,0,0"/>
    <vehicle id="41_22" type="car" route="41" depart="25" />
    <vehicle id="42_23" type="car" route="42" depart="26" />
    <vehicle id="13_24" type="car" route="13" depart="27" />
    <vehicle id="31_25" type="car" route="31" depart="28" />
    <vehicle id="31_26" type="car" route="31" depart="30" />
    <vehicle id="43_27" type="car" route="43" depart="30" />
    <vehicle id="34_28" type="car" route="34" depart="32" />
    <vehicle id="32_29" type="car" route="32" depart="35" />
    <vehicle id="32_30" type="car" route="32" depart="36" />
    <vehicle id="12_31" type="car" route="12" depart="39" />
    <vehicle id="32_32" type="car" route="32" depart="40" />
    <vehicle id="31_33" type="car" route="31" depart="41" />
    <vehicle id="31_34" type="car" route="31" depart="48" />
    <vehicle id="43_35" type="car" route="43" depart="48" />
    <vehicle id="13_36" type="car" route="13" depart="49" />
    <vehicle id="14_37" type="car" route="14" depart="50" color="1,1,0"/>
    <vehicle id="41_38" type="car" route="41" depart="51" />
    <vehicle id="34_39" type="car" route="34" depart="53" />
    <vehicle id="23_40" type="car" route="23" depart="57" color="1,1,0"/>
    <vehicle id="12_41" type="car" route="12" depart="59" />
    <vehicle id="31_42" type="car" route="31" depart="60" />
    <vehicle id="13_43" type="car" route="13" depart="62" />
    <vehicle id="42_44" type="car" route="42" depart="63" />
    <vehicle id="31_45" type="car" route="31" depart="64" />
    <vehicle id="31_46" type="car" route="31" depart="65" />
    <vehicle id="41_47" type="car" route="41" depart="65" />
    <vehicle id="42_48" type="car" route="42" depart="65" />
    <vehicle id="42_49" type="car" route="42" depart="70" />
    <vehicle id="13_50" type="car" route="13" depart="73" />
    <vehicle id="42_51" type="car" route="42" depart="73" />
    <vehicle id="34_52" type="car" route="34" depart="75" />
    <vehicle id="42_53" type="car" route="42" depart="78" />
    <vehicle id="34_54" type="car" route="34" depart="83" />
    <vehicle id="43_55" type="car" route="43" depart="83" />
    <vehicle id="43_56" type="car" route="43" depart="85" />
    <vehicle id="14_57" type="car" route="14" depart="89" color="1,1,0"/>
    <vehicle id="43_58" type="car" route="43" depart="89" />
    <vehicle id="34_59" type="car" route="34" depart="91" />
    <vehicle id="34_60" type="car" route="34" depart="93" />
    <vehicle id="42_61" type="car" route="42" depart="96" />
    <vehicle id="21_62" type="car" route="21" depart="103" color="1,0,0"/>
    <vehicle id="41_63" type="car" route="41" depart="104" />
    <vehicle id="12_64" type="car" route="12" depart="105" />
    <vehicle id="14_65" type="car" route="14" depart="108" color="1,1,0"/>
    <vehicle id="42_66" type="car" route="42" depart="108" />
    <vehicle id="23_67" type="car" route="23" depart="110" color="1,1,0"/>
    <vehicle id="43_68" type="car" route="43" depart="110" />
    <vehicle id="23_69" type="car" route="23" depart="112" color="1,1,0"/>
    <vehicle id="23_70" type="car" route="23" depart="114" color="1,1,0"/>
    <vehicle id="13_71" type="car" route="13" depart="115" />
    <vehicle id="24_72" type="car" route="24" depart="116" color="1,0,0"/>
    <vehicle id="41_73" type="car" route="41" depart="116" />
    <vehicle id="42_74" type="car" route="42" depart="116" />
    <vehicle id="23_75" type="car" route="23" depart="118" color="1,1,0"/>
    <vehicle id="34_76" type="car" route="34" depart="120" />
    <vehicle id="21_77" type="car" route="21" depart="121" color="1,0,0"/>
    <vehicle id="43_78" type="car" route="43" depart="124" />
    <vehicle id="13_79" type="car" route="13" depart="125" />
    <vehicle id="34_80" type="car" route="34" depart="125" />
    <vehicle id="32_81" type="car" route="32" depart="128" />
    <vehicle id="34_82" type="car" route="34" depart="128" />
    <vehicle id="31_83" type="car" route="31" depart="131" />
    <vehicle id="34_84" type="car" route="34" depart="132" />
    <vehicle id="34_85" type="car" route="34" depart="133" />
    <vehicle id="43_86" type="car" route="43" depart="133" />
    <vehicle id="13_87" type="car" route="13" depart="137" />
    <vehicle id="23_88" type="car" route="23" depart="137" color="1,1,0"/>
    <vehicle id="13_89" type="car" route="13" depart="140" />
    <vehicle id="43_90" type="car" route="43" depart="143" />
    <vehicle id="23_91" type="car" route="23" depart="144" color="1,1,0"/>
    <vehicle id="13_92" type="car" route="13" depart="146" />
    <vehicle id="14_93" type="car" route="14" depart="146" color="1,1,0"/>
    <vehicle id="43_94" type="car" route="43" depart="148" />
    <vehicle id="21_95" type="car" route="21" depart="149" color="1,0,0"/>
    <vehicle id="41_96" type="car" route="41" depart="153" />
    <vehicle id="34_97" type="car" route="34" depart="155" />
    <vehicle id="14_98" type="car" route="14" depart="158" color="1,1,0"/>
    <vehicle id="34_99" type="car" route="34" depart="158" />
    <vehicle id="13_100" type="car" route="13" depart="162" />
    <vehicle id="34_101" type="car" route="34" depart="162" />
    <vehicle id="14_102" type="car" route="14" depart="163" color="1,1,0"/>
    <vehicle id="41_103" type="car" route="41" depart="163" />
    <vehicle id="34_104" type="car" route="34" depart="165" />
    <vehicle id="13_105" type="car" route="13" depart="166" />
    <vehicle id="23_106" type="car" route="23" depart="166" color="1,1,0"/>
    <vehicle id="43_107" type="car" route="43" depart="167" />
    <vehicle id="31_108" type="car" route="31" depart="169" />
    <vehicle id="13_109" type="car" route="13" depart="170" />
    <vehicle id="24_110" type="car" route="24" depart="171" color="1,0,0"/>
    <vehicle id="42_111" type="car" route="42" depart="171" />
    <vehicle id="43_112" type="car" route="43" depart="171" />
    <vehicle id="23_113" type="car" route="23" depart="172" color="1,1,0"/>
    <vehicle id="41_114" type="car" route="41" depart="175" />
    <vehicle id="43_115" type="car" route="43" depart="175" />
    <vehicle id="14_116" type="car" route="14" depart="176" color="1,1,0"/>
    <vehicle id="24_117" type="car" route="24" depart="176" color="1,0,0"/>
    <vehicle id="32_118" type="car" route="32" depart="176" />
    <vehicle id="43_119" type="car" route="43" depart="177" />
    <vehicle id="14_120" type="car" route="14" depart="178" color="1,1,0"/>
    <vehicle id="34_121" type="car" route="34" depart="178" />
    <vehicle id="34_122" type="car" route="34" depart="179" />
    <vehicle id="12_123" type="car" route="12" depart="182" />
    <vehicle id="43_124" type="car" route="43" depart="182" />
    <vehicle id="24_125" type="car" route="24" depart="183" color="1,0,0"/>
    <vehicle id="32_126" type="car" route="32" depart="183" />
    <vehicle id="34_127" type="car" route="34" depart="183" />
    <vehicle id="43_128" type="car" route="43" depart="183" />
    <vehicle id="23_129" type="car" route="23" depart="184" color="1,1,0"/>
    <vehicle id="34_130" type="car" route="34" depart="184" />
    <vehicle id="32_131" type="car" route="32" depart="187" />
    <vehicle id="43_132" type="car" route="43" depart="188" />
    <vehicle id="32_133" type="car" route="32" depart="190" />
    <vehicle id="34_134" type="car" route="34" depart="190" />
    <vehicle id="31_135" type="car" route="31" depart="192" />
    <vehicle id="43_136" type="car" route="43" depart="192" />
    <vehicle id="21_137" type="car" route="21" depart="193" color="1,0,0"/>
    <vehicle id="23_138" type="car" route="23" depart="194" color="1,1,0"/>
    <vehicle id="41_139" type="car" route="41" depart="196" />
    <vehicle id="32_140" type="car" route="32" depart="198" />
    <vehicle id="41_141" type="car" route="41" depart="198" />
    <vehicle id="43_142" type="car" route="43" depart="201" />
    <vehicle id="43_143" type="car" route="43" depart="202" />
    <vehicle id="43_144" type="car" route="43" depart="203" />
    <vehicle id="34_145" type="car" route="34" depart="205" />
    <vehicle id="43_146" type="car" route="43" depart="205" />
    <vehicle id="14_147" type="car" route="14" depart="209" color="1,1,0"/>
    <vehicle id="34_148" type="car" route="34" depart="209" />
    <vehicle id="31_149" type="car" route="31" depart="210" />
    <vehicle id="42_150" type="car" route="42" depart="213" />
    <vehicle id="43_151" type="car" route="43" depart="213" />
    <vehicle id="43_152" type="car" route="43" depart="215" />
    <vehicle id="43_153" type="car" route="43" depart="216" />
    <vehicle id="14_154" type="car" route="14" depart="218" color="1,1,0"/>
    <vehicle id="34_155" type="car" route="34" depart="222" />
    <vehicle id="24_156" type="car" route="24" depart="223" color="1,0,0"/>
    <vehicle id="43_157" type="car" route="43" depart="225" />
    <vehicle id="31_158" type="car" route="31" depart="226" />
    <vehicle id="34_159" type="car" route="34" depart="228" />
    <vehicle id="24_160" type="car" route="24" depart="229" color="1,0,0"/>
    <vehicle id="32_161" type="car" route="32" depart="230" />
    <vehicle id="31_162" type="car" route="31" depart="231" />
    <vehicle id="34_163" type="car" route="34" depart="232" />
    <vehicle id="12_164" type="car" route="12" depart="233" />
    <vehicle id="23_165" type="car" route="23" depart="237" color="1,1,0"/>
    <vehicle id="12_166" type="car" route="12" depart="239" />
    <vehicle id="12_167" type="car" route="12" depart="240" />
    <vehicle id="12_168" type="car" route="12" depart="241" />
    <vehicle id="34_169" type="car" route="34" depart="242" />
    <vehicle id="14_170" type="car" route="14" depart="243" color="1,1,0"/>
    <vehicle id="23_171" type="car" route="23" depart="243" color="1,1,0"/>
    <vehicle id="12_172" type="car" route="12" depart="246" />
    <vehicle id="34_173" type="car" route="34" depart="247" />
    <vehicle id="43_174" type="car" route="43" depart="247" />
    <vehicle id="41_175" type="car" route="41" depart="249" />
    <vehicle id="43_176" type="car" route="43" depart="249" />
    <vehicle id="21_177" type="car" route="21" depart="250" color="1,0,0"/>
    <vehicle id="21_178" type="car" route="21" depart="255" color="1,0,0"/>
    <vehicle id="42_179" type="car" route="42" depart="259" />
    <vehicle id="21_180" type="car" route="21" depart="261" color="1,0,0"/>
    <vehicle id="24_181" type="car" route="24" depart="261" color="1,0,0"/>
    <vehicle id="32_182" type="car" route="32" depart="261" />
    <vehicle id="42_183" type="car" route="42" depart="261" />
    <vehicle id="12_184" type="car" route="12" depart="262" />
    <vehicle id="13_185" type="car" route="13" depart="262" />
    <vehicle id="43_186" type="car" route="43" depart="262" />
    <vehicle id="14_187" type="car" route="14" depart="263" color="1,1,0"/>
    <vehicle id="21_188" type="car" route="21" depart="267" color="1,0,0"/>
    <vehicle id="32_189" type="car" route="32" depart="267" />
    <vehicle id="43_190" type="car" route="43" depart="270" />
    <vehicle id="41_191" type="car" route="41" depart="272" />
    <vehicle id="43_192" type="car" route="43" depart="273" />
    <vehicle id="13_193" type="car" route="13" depart="274" />
    <vehicle id="21_194" type="car" route="21" depart="277" color="1,0,0"/>
    <vehicle id="43_195" type="car" route="43" depart="278" />
    <vehicle id="31_196" type="car" route="31" depart="279" />
    <vehicle id="21_197" type="car" route="21" depart="280" color="1,0,0"/>
    <vehicle id="23_198" type="car" route="23" depart="280" color="1,1,0"/>
    <vehicle id="41_199" type="car" route="41" depart="281" />
    <vehicle id="41_200" type="car" route="41" depart="286" />
    <vehicle id="13_201" type="car" route="13" depart="288" />
    <vehicle id="43_202" type="car" route="43" depart="288" />
    <vehicle id="13_203" type="car" route="13" depart="289" />
    <vehicle id="43_204" type="car" route="43" depart="291" />
    <vehicle id="41_205" type="car" route="41" depart="297" />
    <vehicle id="42_206" type="car" route="42" depart="297" />
    <vehicle id="34_207" type="car" route="34" depart="298" />
    <vehicle id="12_208" type="car" route="12" depart="300" />
    <vehicle id="32_209" type="car" route="32" depart="301" />
    <vehicle id="32_210" type="car" route="32" depart="302" />
    <vehicle id="43_211" type="car" route="43" depart="305" />
    <vehicle id="41_212" type="car" route="41" depart="309" />
    <vehicle id="24_213" type="car" route="24" depart="312" color="1,0,0"/>
    <vehicle id="34_214" type="car" route="34" depart="314" />
    <vehicle id="24_215" type="car" route="24" depart="316" color="1,0,0"/>
    <vehicle id="34_216" type="car" route="34" depart="321" />
    <vehicle id="13_217" type="car" route="13" depart="322" />
    <vehicle id="14_218" type="car" route="14" depart="323" color="1,1,0"/>
    <vehicle id="43_219" type="car" route="43" depart="324" />
    <vehicle id="12_220" type="car" route="12" depart="327" />
    <vehicle id="41_221" type="car" route="41" depart="327" />
    <vehicle id="14_222" type="car" route="14" depart="329" color="1,1,0"/>
    <vehicle id="24_223" type="car" route="24" depart="332" color="1,0,0"/>
    <vehicle id="12_224" type="car" route="12" depart="334" />
    <vehicle id="42_225" type="car" route="42" depart="337" />
    <vehicle id="34_226" type="car" route="34" depart="339" />
    <vehicle id="41_227" type="car" route="41" depart="339" />
    <vehicle id="31_228" type="car" route="31" depart="342" />
    <vehicle id="42_229" type="car" route="42" depart="342" />
    <vehicle id="43_230" type="car" route="43" depart="343" />
    <vehicle id="34_231" type="car" route="34" depart="348" />
    <vehicle id="24_232" type="car" route="24" depart="350" color="1,0,0"/>
    <vehicle id="34_233" type="car" route="34" depart="350" />
    <vehicle id="21_234" type="car" route="21" depart="354" color="1,0,0"/>
    <vehicle id="23_235" type="car" route="23" depart="355" color="1,1,0"/>
    <vehicle id="43_236" type="car" route="43" depart="355" />
    <vehicle id="13_237" type="car" route="13" depart="358" />
    <vehicle id="43_238" type="car" route="43" depart="361" />
    <vehicle id="12_239" type="car" route="12" depart="362" />
    <vehicle id="43_240" type="car" route="43" depart="362" />
    <vehicle id="24_241" type="car" route="24" depart="364" color="1,0,0"/>
    <vehicle id="42_242" type="car" route="42" depart="367" />
    <vehicle id="21_243" type="car" route="21" depart="368" color="1,0,0"/>
    <vehicle id="43_244" type="car" route="43" depart="368" />
    <vehicle id="32_245" type="car" route="32" depart="369" />
    <vehicle id="34_246" type="car" route="34" depart="372" />
    <vehicle id="31_247" type="car" route="31" depart="373" />
    <vehicle id="43_248" type="car" route="43" depart="373" />
    <vehicle id="12_249" type="car" route="12" depart="378" />
    <vehicle id="34_250" type="car" route="34" depart="380" />
    <vehicle id="41_251" type="car" route="41" depart="380" />
    <vehicle id="43_252" type="car" route="43" depart="381" />
    <vehicle id="14_253" type="car" route="14" depart="383" color="1,1,0"/>
    <vehicle id="34_254" type="car" route="34" depart="384" />
    <vehicle id="43_255" type="car" route="43" depart="384" />
    <vehicle id="13_256" type="car" route="13" depart="386" />
    <vehicle id="23_257" type="car" route="23" depart="386" color="1,1,0"/>
    <vehicle id="42_258" type="car" route="42" depart="387" />
    <vehicle id="43_259" type="car" route="43" depart="390" />
    <vehicle id="13_260" type="car" route="13" depart="391" />
    <vehicle id="43_261" type="car" route="43" depart="391" />
    <vehicle id="32_262" type="car" route="32" depart="395" />
    <vehicle id="24_263" type="car" route="24" depart="397" color="1,0,0"/>
    <vehicle id="43_264" type="car" route="43" depart="397" />
    <vehicle id="43_265" type="car" route="43" depart="400" />
    <vehicle id="14_266" type="car" route="14" depart="402" color="1,1,0"/>
    <vehicle id="14_267" type="car" route="14" depart="405" color="1,1,0"/>
    <vehicle id="34_268" type="car" route="34" depart="405" />
    <vehicle id="13_269" type="car" route="13" depart="409" />
    <vehicle id="31_270" type="car" route="31" depart="410" />
    <vehicle id="14_271" type="car" route="14" depart="411" color="1,1,0"/>
    <vehicle id="34_272" type="car" route="34" depart="414" />
    <vehicle id="32_273" type="car" route="32" depart="418" />
    <vehicle id="34_274" type="car" route="34" depart="420" />
    <vehicle id="31_275" type="car" route="31" depart="421" />
    <vehicle id="34_276" type="car" route="34" depart="421" />
    <vehicle id="32_277" type="car" route="32" depart="423" />
    <vehicle id="41_278" type="car" route="41" depart="426" />
    <vehicle id="24_279" type="car" route="24" depart="427" color="1,0,0"/>
    <vehicle id="32_280" type="car" route="32" depart="427" />
    <vehicle id="41_281" type="car" route="41" depart="427" />
    <vehicle id="12_282" type="car" route="12" depart="428" />
    <vehicle id="31_283" type="car" route="31" depart="429" />
    <vehicle id="43_284" type="car" route="43" depart="430" />
    <vehicle id="13_285" type="car" route="13" depart="431" />
    <vehicle id="31_286" type="car" route="31" depart="431" />
    <vehicle id="34_287" type="car" route="34" depart="431" />
    <vehicle id="31_288" type="car" route="31" depart="432" />
    <vehicle id="42_289" type="car" route="42" depart="433" />
    <vehicle id="12_290" type="car" route="12" depart="434" />
    <vehicle id="41_291" type="car" route="41" depart="434" />
    <vehicle id="41_292" type="car" route="41" depart="436" />
    <vehicle id="13_293" type="car" route="13" depart="438" />
    <vehicle id="41_294" type="car" route="41" depart="442" />
    <vehicle id="34_295" type="car" route="34" depart="444" />
    <vehicle id="42_296" type="car" route="42" depart="444" />
    <vehicle id="13_297" type="car" route="13" depart="448" />
    <vehicle id="43_298" type="car" route="43" depart="448" />
    <vehicle id="31_299" type="car" route="31" depart="449" />
    <vehicle id="24_300" type="car" route="24" depart="451" color="1,0,0"/>
    <vehicle id="24_301" type="car" route="24" depart="452" color="1,0,0"/>
    <vehicle id="31_302" type="car" route="31" depart="452" />
    <vehicle id="23_303" type="car" route="23" depart="455" color="1,1,0"/>
    <vehicle id="42_304" type="car" route="42" depart="455" />
    <vehicle id="42_305" type="car" route="42" depart="457" />
    <vehicle id="43_306" type="car" route="43" depart="459" />
    <vehicle id="14_307" type="car" route="14" depart="462" color="1,1,0"/>
    <vehicle id="23_308" type="car" route="23" depart="463" color="1,1,0"/>
    <vehicle id="12_309" type="car" route="12" depart="465" />
    <vehicle id="23_310" type="car" route="23" depart="465" color="1,1,0"/>
    <vehicle id="32_311" type="car" route="32" depart="466" />
    <vehicle id="21_312" type="car" route="21" depart="467" color="1,0,0"/>
    <vehicle id="31_313" type="car" route="31" depart="467" />
    <vehicle id="32_314" type="car" route="32" depart="471" />
    <vehicle id="34_315" type="car" route="34" depart="471" />
    <vehicle id="42_316" type="car" route="42" depart="471" />
    <vehicle id="14_317" type="car" route="14" depart="472" color="1,1,0"/>
    <vehicle id="34_318" type="car" route="34" depart="472" />
    <vehicle id="41_319" type="car" route="41" depart="473" />
    <vehicle id="23_320" type="car" route="23" depart="476" color="1,1,0"/>
    <vehicle id="14_321" type="car" route="14" depart="478" color="1,1,0"/>
    <vehicle id="23_322" type="car" route="23" depart="480" color="1,1,0"/>
    <vehicle id="42_323" type="car" route="42" depart="480" />
    <vehicle id="41_324" type="car" route="41" depart="483" />
    <vehicle id="34_325" type="car" route="34" depart="487" />
    <vehicle id="21_326" type="car" route="21" depart="488" color="1,0,0"/>
    <vehicle id="32_327" type="car" route="32" depart="491" />
    <vehicle id="13_328" type="car" route="13" depart="492" />
    <vehicle id="31_329" type="car" route="31" depart="492" />
    <vehicle id="42_330" type="car" route="42" depart="492" />
    <vehicle id="31_331" type="car" route="31" depart="494" />
    <vehicle id="42_332" type="car" route="42" depart="494" />
    <vehicle id="21_333" type="car" route="21" depart="495" color="1,0,0"/>
    <vehicle id="32_334" type="car" route="32" depart="498" />
    <vehicle id="41_335" type="car" route="41" depart="498" />
    <vehicle id="43_336" type="car" route="43" depart="500" />
    <vehicle id="42_337" type="car" route="42" depart="502" />
    <vehicle id="31_338" type="car" route="31" depart="504" />
    <vehicle id="42_339" type="car" route="42" depart="504" />
    <vehicle id="32_340" type="car" route="32" depart="508" />
    <vehicle id="43_341" type="car" route="43" depart="508" />
    <vehicle id="43_342" type="car" route="43" depart="511" />
    <vehicle id="12_343" type="car" route="12" depart="513" />
    <vehicle id="43_344" type="car" route="43" depart="515" />
    <vehicle id="43_345" type="car" route="43" depart="516" />
    <vehicle id="43_346" type="car" route="43" depart="518" />
    <vehicle id="24_347" type="car" route="24" depart="521" color="1,0,0"/>
    <vehicle id="34_348" type="car" route="34" depart="521" />
    <vehicle id="42_349" type="car" route="42" depart="523" />
    <vehicle id="21_350" type="car" route="21" depart="524" color="1,0,0"/>
    <vehicle id="41_351" type="car" route="41" depart="524" />
    <vehicle id="24_352" type="car" route="24" depart="525" color="1,0,0"/>
    <vehicle id="43_353" type="car" route="43" depart="525" />
    <vehicle id="23_354" type="car" route="23" depart="526" color="1,1,0"/>
    <vehicle id="12_355" type="car" route="12" depart="529" />
    <vehicle id="42_356" type="car" route="42" depart="532" />
    <vehicle id="14_357" type="car" route="14" depart="536" color="1,1,0"/>
    <vehicle id="32_358" type="car" route="32" depart="536" />
    <vehicle id="14_359" type="car" route="14" depart="541" color="1,1,0"/>
    <vehicle id="32_360" type="car" route="32" depart="542" />
    <vehicle id="41_361" type="car" route="41" depart="542" />
    <vehicle id="31_362" type="car" route="31" depart="543" />
    <vehicle id="42_363" type="car" route="42" depart="543" />
    <vehicle id="43_364" type="car" route="43" depart="543" />
    <vehicle id="13_365" type="car" route="13" depart="546" />
    <vehicle id="13_366" type="car" route="13" depart="547" />
    <vehicle id="32_367" type="car" route="32" depart="549" />
    <vehicle id="42_368" type="car" route="42" depart="549" />
    <vehicle id="14_369" type="car" route="14" depart="552" color="1,1,0"/>
    <vehicle id="12_370" type="car" route="12" depart="554" />
    <vehicle id="23_371" type="car" route="23" depart="554" color="1,1,0"/>
    <vehicle id="31_372" type="car" route="31" depart="555" />
    <vehicle id="12_373" type="car" route="12" depart="557" />
    <vehicle id="42_374" type="car" route="42" depart="559" />
    <vehicle id="13_375" type="car" route="13" depart="564" />
    <vehicle id="24_376" type="car" route="24" depart="564" color="1,0,0"/>
    <vehicle id="42_377" type="car" route="42" depart="564" />
    <vehicle id="23_378" type="car" route="23" depart="565" color="1,1,0"/>
    <vehicle id="42_379" type="car" route="42" depart="566" />
    <vehicle id="21_380" type="car" route="21" depart="568" color="1,0,0"/>
    <vehicle id="21_381" type="car" route="21" depart="570" color="1,0,0"/>
    <vehicle id="41_382" type="car" route="41" depart="572" />
    <vehicle id="34_383" type="car" route="34" depart="573" />
    <vehicle id="41_384" type="car" route="41" depart="573" />
    <vehicle id="42_385" type="car" route="42" depart="574" />
    <vehicle id="24_386" type="car" route="24" depart="576" color="1,0,0"/>
    <vehicle id="24_387" type="car" route="24" depart="577" color="1,0,0"/>
    <vehicle id="41_388" type="car" route="41" depart="577" />
    <vehicle id="13_389" type="car" route="13" depart="582" />
    <vehicle id="43_390" type="car" route="43" depart="585" />
    <vehicle id="21_391" type="car" route="21" depart="586" color="1,0,0"/>
    <vehicle id="24_392" type="car" route="24" depart="587" color="1,0,0"/>
    <vehicle id="31_393" type="car" route="31" depart="589" />
    <vehicle id="41_394" type="car" route="41" depart="589" />
    <vehicle id="32_395" type="car" route="32" depart="590" />
    <vehicle id="23_396" type="car" route="23" depart="591" color="1,1,0"/>
    <vehicle id="43_397" type="car" route="43" depart="591" />
    <vehicle id="43_398" type="car" route="43" depart="592" />
    <vehicle id="34_399" type="car" route="34" depart="593" />
    <vehicle id="13_400" type="car" route="13" depart="594" />
    <vehicle id="31_401" type="car" route="31" depart="597" />
    <vehicle id="24_402" type="car" route="24" depart="599" color="1,0,0"/>
    <vehicle id="41_403" type="car" route="41" depart="600" />
    <vehicle id="42_404" type="car" route="42" depart="602" />
    <vehicle id="34_405" type="car" route="34" depart="604" />
    <vehicle id="12_406" type="car" route="12" depart="607" />
    <vehicle id="21_407" type="car" route="21" depart="607" color="1,0,0"/>
    <vehicle id="34_408" type="car" route="34" depart="609" />
    <vehicle id="24_409" type="car" route="24" depart="612" color="1,0,0"/>
    <vehicle id="42_410" type="car" route="42" depart="612" />
    <vehicle id="14_411" type="car" route="14" depart="613" color="1,1,0"/>
    <vehicle id="12_412" type="car" route="12" depart="614" />
    <vehicle id="23_413" type="car" route="23" depart="615" color="1,1,0"/>
    <vehicle id="32_414" type="car" route="32" depart="615" />
    <vehicle id="12_415" type="car" route="12" depart="616" />
    <vehicle id="34_416" type="car" route="34" depart="616" />
    <vehicle id="43_417" type="car" route="43" depart="616" />
    <vehicle id="41_418" type="car" route="41" depart="618" />
    <vehicle id="41_419" type="car" route="41" depart="619" />
    <vehicle id="43_420" type="car" route="43" depart="621" />
    <vehicle id="41_421" type="car" route="41" depart="622" />
    <vehicle id="34_422" type="car" route="34" depart="623" />
    <vehicle id="42_423" type="car" route="42" depart="623" />
    <vehicle id="13_424" type="car" route="13" depart="625" />
    <vehicle id="34_425" type="car" route="34" depart="625" />
    <vehicle id="23_426" type="car" route="23" depart="627" color="1,1,0"/>
    <vehicle id="34_427" type="car" route="34" depart="627" />
    <vehicle id="41_428" type="car" route="41" depart="627" />
    <vehicle id="41_429" type="car" route="41" depart="628" />
    <vehicle id="32_430" type="car" route="32" depart="630" />
    <vehicle id="34_431" type="car" route="34" depart="631" />
    <vehicle id="31_432" type="car" route="31" depart="632" />
    <vehicle id="34_433" type="car" route="34" depart="635" />
    <vehicle id="24_434" type="car" route="24" depart="637" color="1,0,0"/>
    <vehicle id="31_435" type="car" route="31" depart="637" />
    <vehicle id="43_436" type="car" route="43" depart="639" />
    <vehicle id="31_437" type="car" route="31" depart="641" />
    <vehicle id="31_438" type="car" route="31" depart="643" />
    <vehicle id="42_439" type="car" route="42" depart="643" />
    <vehicle id="34_440" type="car" route="34" depart="645" />
    <vehicle id="43_441" type="car" route="43" depart="645" />
    <vehicle id="43_442" type="car" route="43" depart="647" />
    <vehicle id="34_443" type="car" route="34" depart="648" />
    <vehicle id="31_444" type="car" route="31" depart="649" />
    <vehicle id="43_445" type="car" route="43" depart="650" />
    <vehicle id="21_446" type="car" route="21" depart="654" color="1,0,0"/>