<configuration>
   <input>
        <net-file value="f_road.net.xml"/>
        <route-files value="f_road.rou.xml"/>
    </input>

    <time>
        <begin value="0"/>
    </time>

    <report>
        <verbose value="true"/>
        <no-step-log value="true"/>
    </report>

</configuration>